Version 4
SHEET 1 1136 680
WIRE 464 -656 352 -656
WIRE 656 -656 528 -656
WIRE 352 -560 352 -656
WIRE 464 -560 352 -560
WIRE 656 -560 656 -656
WIRE 656 -560 528 -560
WIRE 352 -448 352 -560
WIRE 464 -448 352 -448
WIRE 656 -448 656 -560
WIRE 656 -448 528 -448
WIRE 464 -352 400 -352
WIRE 464 -320 464 -352
WIRE 400 -304 400 -352
WIRE 464 -208 464 -256
WIRE 352 -64 352 -448
WIRE 464 -64 464 -128
WIRE 464 -64 352 -64
WIRE 656 -64 656 -448
WIRE 656 -64 544 -64
WIRE 464 32 -368 32
WIRE 464 96 464 32
WIRE 464 96 400 96
WIRE -368 112 -368 32
WIRE -224 112 -368 112
WIRE -160 112 -224 112
WIRE -32 112 -80 112
WIRE 64 112 -32 112
WIRE 144 112 64 112
WIRE 272 112 224 112
WIRE 400 144 400 96
WIRE 64 160 64 112
WIRE -368 176 -368 112
WIRE -224 176 -224 112
WIRE -32 176 -32 112
WIRE 464 272 464 96
WIRE 352 288 352 -64
WIRE 432 288 352 288
WIRE -368 304 -368 256
WIRE -224 304 -224 240
WIRE -224 304 -368 304
WIRE -32 304 -32 240
WIRE -32 304 -224 304
WIRE 64 304 64 240
WIRE 64 304 -32 304
WIRE 656 304 656 -64
WIRE 656 304 496 304
WIRE 736 304 656 304
WIRE 960 304 800 304
WIRE 976 304 960 304
WIRE -224 320 -224 304
WIRE 272 320 272 112
WIRE 432 320 272 320
WIRE 976 336 976 304
WIRE 464 352 464 336
WIRE 0 432 -80 432
WIRE 144 432 80 432
WIRE 272 432 272 320
WIRE 272 432 208 432
WIRE 976 464 976 416
WIRE -80 480 -80 432
WIRE -80 576 -80 560
FLAG -224 320 0
FLAG -80 576 0
FLAG 464 352 0
FLAG 400 208 0
FLAG 400 -304 0
FLAG 976 464 0
FLAG 960 304 VOUT
SYMBOL res -64 96 R90
WINDOW 0 0 56 VBottom 2
WINDOW 3 32 56 VTop 2
SYMATTR InstName R1
SYMATTR Value 10k
SYMBOL Misc/battery -368 160 R0
SYMATTR InstName V1
SYMATTR Value 9
SYMBOL cap -240 176 R0
SYMATTR InstName C1
SYMATTR Value 47µ
SYMBOL cap -48 176 R0
SYMATTR InstName C2
SYMATTR Value 47µ
SYMBOL res 48 144 R0
SYMATTR InstName R2
SYMATTR Value 10k
SYMBOL res 240 96 R90
WINDOW 0 0 56 VBottom 2
WINDOW 3 32 56 VTop 2
SYMATTR InstName R3
SYMATTR Value 1Meg
SYMBOL voltage -80 464 R0
SYMATTR InstName V2
SYMATTR Value wavefile=DontStopBelievingJourney.wav
SYMBOL res 96 416 R90
WINDOW 0 0 56 VBottom 2
WINDOW 3 32 56 VTop 2
SYMATTR InstName R4
SYMATTR Value 10k
SYMBOL cap 208 416 R90
WINDOW 0 0 32 VBottom 2
WINDOW 3 32 32 VTop 2
SYMATTR InstName C3
SYMATTR Value 470n
SYMBOL Opamps/AD8033 464 240 R0
SYMATTR InstName U1
SYMBOL cap 384 144 R0
SYMATTR InstName C4
SYMATTR Value 0.1µ
SYMBOL res 480 -112 R180
WINDOW 0 36 76 Left 2
WINDOW 3 36 40 Left 2
SYMATTR InstName R5
SYMATTR Value 1k
SYMBOL res 560 -80 R90
WINDOW 0 0 56 VBottom 2
WINDOW 3 32 56 VTop 2
SYMATTR InstName R6
SYMATTR Value 500k
SYMBOL cap 448 -320 R0
SYMATTR InstName C5
SYMATTR Value 220n
SYMBOL cap 800 288 R90
WINDOW 0 0 32 VBottom 2
WINDOW 3 32 32 VTop 2
SYMATTR InstName C6
SYMATTR Value 1µ
SYMBOL res 992 432 R180
WINDOW 0 36 76 Left 2
WINDOW 3 36 40 Left 2
SYMATTR InstName R7
SYMATTR Value 50k
SYMBOL cap 528 -672 R90
WINDOW 0 0 32 VBottom 2
WINDOW 3 32 32 VTop 2
SYMATTR InstName C7
SYMATTR Value 100p
SYMBOL AutoGenerated/1N4148 496 -560 R0
SYMATTR InstName U2
SYMBOL AutoGenerated/1N4148 496 -448 R180
SYMATTR InstName U3
TEXT 48 -24 Left 2 !.tran 200
TEXT 40 -144 Left 2 !.step param R 100k 1Meg 10k
TEXT 48 -104 Left 2 !.op
TEXT -672 -552 Left 2 !.wave wave_export.wav 16 10k V(VOUT)
